Circuit: * Z:\home\euler\5to-2020\me2\2020\git\LTspice simulations\FM modulation\FM_mod.asc

Direct Newton iteration for .op point succeeded.

Date: Thu Jun 11 16:14:42 2020
Total elapsed time: 0.081 seconds.

tnom = 27
temp = 27
method = modified trap
totiter = 2319
traniter = 2316
tranpoints = 1061
accept = 1047
rejected = 14
matrix size = 4
fillins = 0
solver = Normal
Matrix Compiler1: 82 bytes object code size  3.3/3.2/[2.6]
Matrix Compiler2: 214 bytes object code size  3.4/3.3/[2.7]


