Circuit: * Z:\home\euler\5to-2020\me2\2020\git\LTspice simulations\FM modulation\FM_mod.asc

WARNING: Less than two connections to node OUT.  This node is used by A1.
Direct Newton iteration for .op point succeeded.

Date: Tue Oct 20 00:41:40 2020
Total elapsed time: 0.150 seconds.

tnom = 27
temp = 27
method = modified trap
totiter = 5241
traniter = 5238
tranpoints = 2278
accept = 1638
rejected = 640
matrix size = 9
fillins = 0
solver = Normal
Matrix Compiler1: 188 bytes object code size  2.9/2.9/[2.8]
Matrix Compiler2: 411 bytes object code size  2.8/2.9/[2.7]


