Circuit: * Z:\home\euler\5to-2020\me2\2020\git\LTspice simulations\Peak detector\Draft2.asc


Date: Fri Jun 12 14:28:00 2020
Total elapsed time: 0.032 seconds.

tnom = 27
temp = 27
method = trap
totiter = 0
traniter = 0
tranpoints = 0
accept = 0
rejected = 0
matrix size = 3
fillins = 1
solver = Normal

