Circuit: * Z:\home\euler\5to-2020\me2\2020\git\LTspice simulations\Peak detector\peak_detector.asc

Direct Newton iteration failed to find .op point.  (Use ".option noopiter" to skip.)
Starting Gmin stepping
Gmin = 10
Gmin = 1.07374
Gmin = 0.115292
Gmin = 0.0123794
Gmin = 0.00132923
Gmin = 0.000142725
Gmin = 1.5325e-005
Gmin = 1.6455e-006
Gmin = 1.76685e-007
Gmin = 1.89714e-008
Gmin = 2.03704e-009
Gmin = 2.18725e-010
Gmin = 2.34854e-011
Gmin = 2.52173e-012
Gmin = 2.70769e-013
Gmin = 0
Gmin stepping succeeded in finding the operating point.


Date: Fri Jun 12 18:20:37 2020
Total elapsed time: 0.995 seconds.

tnom = 27
temp = 27
method = modified trap
totiter = 12624
traniter = 12215
tranpoints = 5448
accept = 3857
rejected = 1591
matrix size = 35
fillins = 16
solver = Normal
Matrix Compiler1: 2.32 KB object code size  4.9/4.5/[3.9]
Matrix Compiler2: 3.03 KB object code size  4.1/4.8/[3.9]


