Circuit: * Z:\home\euler\5to-2020\me2\2020\git\LTspice simulations\Sweep Generator\Draft20.asc

.OP point found by inspection.

Date: Tue Jun 16 12:53:45 2020
Total elapsed time: 0.098 seconds.

tnom = 27
temp = 27
method = modified trap
totiter = 2082
traniter = 2082
tranpoints = 1042
accept = 1042
rejected = 0
matrix size = 3
fillins = 0
solver = Normal
Matrix Compiler1: 50 bytes object code size  2.7/2.6/[2.6]
Matrix Compiler2: 175 bytes object code size  2.7/2.7/[2.6]


