Circuit: * Z:\home\euler\5to-2020\me2\2020\git\LTspice simulations\Sweep Generator\Sweep_Generator.asc

Direct Newton iteration for .op point succeeded.

Date: Tue Jun 30 17:33:25 2020
Total elapsed time: 0.807 seconds.

tnom = 27
temp = 27
method = modified trap
totiter = 37044
traniter = 37033
tranpoints = 18150
accept = 12570
rejected = 5580
matrix size = 12
fillins = 0
solver = Normal
Matrix Compiler1: 338 bytes object code size  4.5/4.1/[3.9]
Matrix Compiler2: 696 bytes object code size  4.6/3.9/[3.9]


