Circuit: * Z:\home\euler\5to-2020\me2\2020\git\LTspice simulations\Sweep Generator\Sweep_LTspice.asc


Date: Fri Jun 12 18:39:15 2020
Total elapsed time: 0.037 seconds.

tnom = 27
temp = 27
method = trap
totiter = 0
traniter = 0
tranpoints = 0
accept = 0
rejected = 0
matrix size = 3
fillins = 0
solver = Normal

