Circuit: * Z:\home\euler\5to-2020\me2\2020\git\LTspice simulations\SMPTE\smpte.asc

.OP point found by inspection.

Date: Wed Jul 01 19:10:22 2020
Total elapsed time: 0.439 seconds.

tnom = 27
temp = 27
method = modified trap
totiter = 32118
traniter = 32118
tranpoints = 12612
accept = 7576
rejected = 5036
matrix size = 7
fillins = 0
solver = Normal
Matrix Compiler1: 142 bytes object code size  2.8/2.7/[2.8]
Matrix Compiler2: 359 bytes object code size  2.7/2.8/[2.7]


