Circuit: * Z:\home\euler\5to-2020\me2\2020\git\LTspice simulations\AM modulation\AM_mod.asc

Direct Newton iteration for .op point succeeded.

Date: Thu Jun 11 18:10:24 2020
Total elapsed time: 5.089 seconds.

tnom = 27
temp = 27
method = modified trap
totiter = 529575
traniter = 529561
tranpoints = 199247
accept = 120416
rejected = 78831
matrix size = 9
fillins = 0
solver = Normal
Matrix Compiler1: 224 bytes object code size  2.9/2.8/[2.7]
Matrix Compiler2: 511 bytes object code size  2.7/3.0/[2.8]


