Circuit: * Z:\home\euler\5to-2020\me2\2020\git\LTspice simulations\AM modulation\AM_mod.asc

WARNING: Less than two connections to node MODULADORA.  This node is used by B1.
WARNING: Less than two connections to node AM.  This node is used by B2.
Direct Newton iteration for .op point succeeded.

Date: Sun Jul 05 19:57:05 2020
Total elapsed time: 0.492 seconds.

tnom = 27
temp = 27
method = modified trap
totiter = 65033
traniter = 65030
tranpoints = 23513
accept = 14815
rejected = 8698
matrix size = 10
fillins = 0
solver = Normal
Matrix Compiler1: 202 bytes object code size  2.8/2.8/[2.7]
Matrix Compiler2: 450 bytes object code size  2.8/2.9/[2.8]


