Circuit: * Z:\home\euler\5to-2020\me2\2020\git\LTspice simulations\AM_mod.asc

WARNING: Less than two connections to node MODULADORA.  This node is used by B1.
Direct Newton iteration for .op point succeeded.

Date: Fri Nov 20 18:07:33 2020
Total elapsed time: 2.326 seconds.

tnom = 27
temp = 27
method = modified trap
totiter = 292598
traniter = 292589
tranpoints = 100052
accept = 60048
rejected = 40004
matrix size = 11
fillins = 0
solver = Normal
Matrix Compiler1: 216 bytes object code size  3.1/3.0/[3.0]
Matrix Compiler2: 529 bytes object code size  3.0/3.2/[3.0]


