Circuit: * Z:\home\euler\5to-2020\me2\2020\git\LTspice simulations\Draft2.asc

WARNING: Less than two connections to node OUT.  This node is used by A1.
Direct Newton iteration for .op point succeeded.

Date: Wed Jun 10 17:24:12 2020
Total elapsed time: 0.059 seconds.

tnom = 27
temp = 27
method = modified trap
totiter = 3323
traniter = 3320
tranpoints = 1303
accept = 1133
rejected = 170
matrix size = 3
fillins = 0
solver = Normal
Matrix Compiler1:       3 opcodes  2.7/[2.7]/15.0
Matrix Compiler2:      13 opcodes  2.7/[2.7]/2.8


