Circuit: * Z:\home\euler\5to-2020\me2\2020\git\LTspice simulations\punta_de_prueba.asc

.OP point found by inspection.

Date: Mon Nov 23 15:53:18 2020
Total elapsed time: 0.115 seconds.

tnom = 27
temp = 27
method = modified trap
totiter = 3728
traniter = 3728
tranpoints = 1865
accept = 1814
rejected = 51
matrix size = 6
fillins = 0
solver = Normal
Matrix Compiler1: 110 bytes object code size  3.0/3.0/[2.9]
Matrix Compiler2: 346 bytes object code size  2.9/3.2/[2.9]


