Circuit: * Z:\home\euler\5to-2020\me2\2020\git\LTspice simulations\reflectometriaasc.asc

pl1: using linear interpolation because trytocompact option specified
.OP point found by inspection.

Date: Tue Nov 24 18:23:15 2020
Total elapsed time: 0.167 seconds.

tnom = 27
temp = 27
method = modified trap
totiter = 2188
traniter = 2188
tranpoints = 1095
accept = 1080
rejected = 15
matrix size = 6
fillins = 0
solver = Normal
Matrix Compiler1: 244 bytes object code size  3.8/3.1/[2.9]
Matrix Compiler2: 434 bytes object code size  16.4/3.2/[2.9]


