Circuit: * Z:\home\euler\5to-2020\me2\2020\git\LTspice simulations\Spectrum Analyzer\spectrum_analyzer.asc

Direct Newton iteration for .op point succeeded.

Date: Wed Jul 01 17:40:38 2020
Total elapsed time: 91.662 seconds.

tnom = 27
temp = 27
method = modified trap
totiter = 995212
traniter = 995186
tranpoints = 362661
accept = 226674
rejected = 135987
matrix size = 31
fillins = 10
solver = Normal
Thread vector: 194.8/63.7[3] 20.0/356.2[1] 11.9/165.6[1] 4.1/238.1[1]  2592/500
Matrix Compiler1: 1.77 KB object code size  6.2/6.0/[5.5]
Matrix Compiler2: 2.75 KB object code size  5.5/5.9/[4.2]


